A36
 OpenBabel11162314363D

 59 64  0  0  1  0  0  0  0  0999 V2000
   20.7811  -55.8996   36.1772 C   0  0  0  0  0  0  0  0  0  0  0  0
   20.3280  -54.6712   35.8736 C   0  0  0  0  0  0  0  0  0  0  0  0
   20.2719  -53.6261   36.8813 C   0  0  0  0  0  0  0  0  0  0  0  0
   20.7349  -53.7050   38.0237 O   0  0  0  0  0  0  0  0  0  0  0  0
   19.6174  -52.5479   36.4163 N   0  0  0  0  0  0  0  0  0  0  0  0
   19.2840  -51.3915   37.1657 C   0  0  0  0  0  0  0  0  0  0  0  0
   20.1946  -50.8037   38.0732 C   0  0  0  0  0  0  0  0  0  0  0  0
   19.8022  -49.7006   38.8501 C   0  0  0  0  0  0  0  0  0  0  0  0
   18.5054  -49.1739   38.7174 C   0  0  0  0  0  0  0  0  0  0  0  0
   17.6013  -49.7278   37.7843 C   0  0  0  0  0  0  0  0  0  0  0  0
   16.1905  -49.2238   37.7408 C   0  0  0  0  0  0  0  0  0  0  0  0
   15.5145  -49.3047   38.7661 O   0  0  0  0  0  0  0  0  0  0  0  0
   15.7193  -48.6766   36.5978 N   0  0  0  0  0  0  0  0  0  0  0  0
   16.4934  -48.3367   35.4016 C   0  0  0  0  0  0  0  0  0  0  0  0
   15.6694  -47.2652   34.6737 C   0  0  0  0  0  0  0  0  0  0  0  0
   14.2293  -47.5754   35.0730 C   0  0  2  0  0  0  0  0  0  0  0  0
   13.2302  -46.4601   34.9492 C   0  0  0  0  0  0  0  0  0  0  0  0
   13.3419  -45.1949   34.4244 C   0  0  0  0  0  0  0  0  0  0  0  0
   12.0364  -44.5770   34.5026 C   0  0  0  0  0  0  0  0  0  0  0  0
   11.4239  -43.3538   34.1151 C   0  0  0  0  0  0  0  0  0  0  0  0
   12.1330  -42.2616   33.4305 C   0  0  0  0  0  0  0  0  0  0  0  0
   11.8986  -40.8665   33.6212 C   0  0  0  0  0  0  0  0  0  0  0  0
   12.6523  -40.0824   32.8408 N   0  0  0  0  0  0  0  0  0  0  0  0
   13.4476  -40.8965   32.0887 N   0  0  0  0  0  0  0  0  0  0  0  0
   14.3389  -40.4903   31.1872 N   0  0  0  0  0  0  0  0  0  0  0  0
   14.9746  -41.5073   30.5538 C   0  0  0  0  0  0  0  0  0  0  0  0
   14.7355  -42.8820   30.8044 C   0  0  0  0  0  0  0  0  0  0  0  0
   13.7702  -43.2698   31.7597 C   0  0  0  0  0  0  0  0  0  0  0  0
   13.1301  -42.1977   32.4275 C   0  0  0  0  0  0  0  0  0  0  0  0
   10.0570  -43.1622   34.4250 C   0  0  0  0  0  0  0  0  0  0  0  0
    9.3396  -44.1561   35.1162 C   0  0  0  0  0  0  0  0  0  0  0  0
    9.8765  -45.3159   35.5307 N   0  0  0  0  0  0  0  0  0  0  0  0
   11.1832  -45.4920   35.1850 C   0  0  0  0  0  0  0  0  0  0  0  0
   11.9349  -46.6209   35.4055 N   0  0  0  0  0  0  0  0  0  0  0  0
   14.3722  -48.1154   36.4981 C   0  0  0  0  0  0  0  0  0  0  0  0
   18.0022  -50.8278   36.9951 C   0  0  0  0  0  0  0  0  0  0  0  0
   21.1247  -56.1597   37.1720 H   0  0  0  0  0  0  0  0  0  0  0  0
   20.8235  -56.6758   35.4256 H   0  0  0  0  0  0  0  0  0  0  0  0
   20.0044  -54.4733   34.8599 H   0  0  0  0  0  0  0  0  0  0  0  0
   19.1983  -52.6317   35.5015 H   0  0  0  0  0  0  0  0  0  0  0  0
   21.1909  -51.2012   38.1904 H   0  0  0  0  0  0  0  0  0  0  0  0
   20.4954  -49.2640   39.5558 H   0  0  0  0  0  0  0  0  0  0  0  0
   18.2019  -48.3475   39.3442 H   0  0  0  0  0  0  0  0  0  0  0  0
   17.4924  -47.9671   35.6424 H   0  0  0  0  0  0  0  0  0  0  0  0
   16.5993  -49.2277   34.7795 H   0  0  0  0  0  0  0  0  0  0  0  0
   15.9572  -46.2841   35.0552 H   0  0  0  0  0  0  0  0  0  0  0  0
   15.8223  -47.2644   33.5929 H   0  0  0  0  0  0  0  0  0  0  0  0
   13.8927  -48.4016   34.4433 H   0  0  0  0  0  0  0  0  0  0  0  0
   14.2352  -44.7568   34.0065 H   0  0  0  0  0  0  0  0  0  0  0  0
   11.2008  -40.3934   34.2972 H   0  0  0  0  0  0  0  0  0  0  0  0
   15.6954  -41.2154   29.8032 H   0  0  0  0  0  0  0  0  0  0  0  0
   15.2714  -43.6339   30.2435 H   0  0  0  0  0  0  0  0  0  0  0  0
   13.5369  -44.3049   31.9518 H   0  0  0  0  0  0  0  0  0  0  0  0
    9.5471  -42.2525   34.1421 H   0  0  0  0  0  0  0  0  0  0  0  0
    8.2989  -44.0026   35.3611 H   0  0  0  0  0  0  0  0  0  0  0  0
   11.5890  -47.4932   35.7973 H   0  0  0  0  0  0  0  0  0  0  0  0
   13.5988  -48.8525   36.7247 H   0  0  0  0  0  0  0  0  0  0  0  0
   14.2873  -47.3005   37.2207 H   0  0  0  0  0  0  0  0  0  0  0  0
   17.2993  -51.2797   36.3081 H   0  0  0  0  0  0  0  0  0  0  0  0
  1  2  2  0  0  0  0
  1 37  1  0  0  0  0
  1 38  1  0  0  0  0
  2  3  1  0  0  0  0
  2 39  1  0  0  0  0
  3  4  2  0  0  0  0
  3  5  1  0  0  0  0
  5  6  1  0  0  0  0
  5 40  1  0  0  0  0
  6  7  2  0  0  0  0
  6 36  1  0  0  0  0
  7  8  1  0  0  0  0
  7 41  1  0  0  0  0
  8  9  2  0  0  0  0
  8 42  1  0  0  0  0
  9 10  1  0  0  0  0
  9 43  1  0  0  0  0
 10 11  1  0  0  0  0
 10 36  2  0  0  0  0
 11 12  2  0  0  0  0
 11 13  1  0  0  0  0
 13 14  1  0  0  0  0
 13 35  1  0  0  0  0
 14 15  1  0  0  0  0
 14 44  1  0  0  0  0
 14 45  1  0  0  0  0
 15 16  1  0  0  0  0
 15 46  1  0  0  0  0
 15 47  1  0  0  0  0
 16 17  1  0  0  0  0
 16 35  1  0  0  0  0
 16 48  1  6  0  0  0
 17 18  2  0  0  0  0
 17 34  1  0  0  0  0
 18 19  1  0  0  0  0
 18 49  1  0  0  0  0
 19 20  2  0  0  0  0
 19 33  1  0  0  0  0
 20 21  1  0  0  0  0
 20 30  1  0  0  0  0
 21 22  1  0  0  0  0
 21 29  2  0  0  0  0
 22 23  2  0  0  0  0
 22 50  1  0  0  0  0
 23 24  1  0  0  0  0
 24 25  1  0  0  0  0
 24 29  1  0  0  0  0
 25 26  2  0  0  0  0
 26 27  1  0  0  0  0
 26 51  1  0  0  0  0
 27 28  2  0  0  0  0
 27 52  1  0  0  0  0
 28 29  1  0  0  0  0
 28 53  1  0  0  0  0
 30 31  2  0  0  0  0
 30 54  1  0  0  0  0
 31 32  1  0  0  0  0
 31 55  1  0  0  0  0
 32 33  2  0  0  0  0
 33 34  1  0  0  0  0
 34 56  1  0  0  0  0
 35 57  1  0  0  0  0
 35 58  1  0  0  0  0
 36 59  1  0  0  0  0
M  END
$$$$
