A46
 OpenBabel11162314363D

 61 66  0  0  1  0  0  0  0  0999 V2000
   21.1343  -55.9588   35.2253 C   0  0  0  0  0  0  0  0  0  0  0  0
   20.7353  -55.8142   36.4975 C   0  0  0  0  0  0  0  0  0  0  0  0
   20.3604  -54.5106   36.9899 C   0  0  0  0  0  0  0  0  0  0  0  0
   21.1353  -53.7068   37.5095 O   0  0  0  0  0  0  0  0  0  0  0  0
   19.0435  -54.3188   36.8246 N   0  0  0  0  0  0  0  0  0  0  0  0
   18.2702  -53.1666   37.1142 C   0  0  0  0  0  0  0  0  0  0  0  0
   18.7328  -52.0721   37.8858 C   0  0  0  0  0  0  0  0  0  0  0  0
   17.9160  -50.9463   38.0802 C   0  0  0  0  0  0  0  0  0  0  0  0
   16.6315  -50.8997   37.5075 C   0  0  0  0  0  0  0  0  0  0  0  0
   15.7902  -49.6821   37.7125 C   0  0  0  0  0  0  0  0  0  0  0  0
   15.5375  -49.3080   38.8605 O   0  0  0  0  0  0  0  0  0  0  0  0
   15.3511  -49.0203   36.6231 N   0  0  0  0  0  0  0  0  0  0  0  0
   15.6936  -49.2478   35.2170 C   0  0  0  0  0  0  0  0  0  0  0  0
   14.8026  -48.2823   34.4238 C   0  0  0  0  0  0  0  0  0  0  0  0
   14.5630  -47.1346   35.3906 C   0  0  1  0  0  0  0  0  0  0  0  0
   13.3745  -46.2708   35.1193 C   0  0  0  0  0  0  0  0  0  0  0  0
   13.2572  -45.0928   34.4254 C   0  0  0  0  0  0  0  0  0  0  0  0
   11.8675  -44.6810   34.4997 C   0  0  0  0  0  0  0  0  0  0  0  0
   11.0203  -43.6505   33.9902 C   0  0  0  0  0  0  0  0  0  0  0  0
   11.5325  -42.6334   33.0426 C   0  0  0  0  0  0  0  0  0  0  0  0
   12.7516  -42.6107   32.4028 C   0  0  0  0  0  0  0  0  0  0  0  0
   12.8198  -41.5398   31.5440 N   0  0  0  0  0  0  0  0  0  0  0  0
   11.6425  -40.8383   31.5710 C   0  0  0  0  0  0  0  0  0  0  0  0
   11.2350  -39.7251   30.8251 C   0  0  0  0  0  0  0  0  0  0  0  0
    9.9352  -39.2155   30.9657 C   0  0  0  0  0  0  0  0  0  0  0  0
    9.0963  -39.7790   31.9277 C   0  0  0  0  0  0  0  0  0  0  0  0
    9.5351  -40.8524   32.7276 C   0  0  0  0  0  0  0  0  0  0  0  0
   10.8038  -41.4713   32.5355 C   0  0  0  0  0  0  0  0  0  0  0  0
    9.6497  -43.7034   34.3477 C   0  0  0  0  0  0  0  0  0  0  0  0
    9.1740  -44.6900   35.2245 C   0  0  0  0  0  0  0  0  0  0  0  0
    9.9349  -45.6600   35.7522 N   0  0  0  0  0  0  0  0  0  0  0  0
   11.2186  -45.6346   35.3343 C   0  0  0  0  0  0  0  0  0  0  0  0
   12.1377  -46.5991   35.6207 N   0  0  0  0  0  0  0  0  0  0  0  0
   14.4995  -47.8505   36.7404 C   0  0  0  0  0  0  0  0  0  0  0  0
   16.1417  -52.0165   36.7979 C   0  0  0  0  0  0  0  0  0  0  0  0
   16.9607  -53.1397   36.5960 C   0  0  0  0  0  0  0  0  0  0  0  0
   21.1751  -55.1218   34.5417 H   0  0  0  0  0  0  0  0  0  0  0  0
   21.4400  -56.9250   34.8546 H   0  0  0  0  0  0  0  0  0  0  0  0
   20.7109  -56.6679   37.1613 H   0  0  0  0  0  0  0  0  0  0  0  0
   18.5550  -55.0721   36.3635 H   0  0  0  0  0  0  0  0  0  0  0  0
   19.7095  -52.0526   38.3399 H   0  0  0  0  0  0  0  0  0  0  0  0
   18.2863  -50.1101   38.6577 H   0  0  0  0  0  0  0  0  0  0  0  0
   16.7478  -49.0092   35.0661 H   0  0  0  0  0  0  0  0  0  0  0  0
   15.5358  -50.2735   34.8902 H   0  0  0  0  0  0  0  0  0  0  0  0
   15.2497  -47.9635   33.4800 H   0  0  0  0  0  0  0  0  0  0  0  0
   13.8528  -48.7704   34.1966 H   0  0  0  0  0  0  0  0  0  0  0  0
   15.4584  -46.5082   35.3854 H   0  0  0  0  0  0  0  0  0  0  0  0
   14.0735  -44.5956   33.9269 H   0  0  0  0  0  0  0  0  0  0  0  0
   13.5873  -43.2888   32.4389 H   0  0  0  0  0  0  0  0  0  0  0  0
   13.6164  -41.3568   30.9470 H   0  0  0  0  0  0  0  0  0  0  0  0
   11.9261  -39.3056   30.1092 H   0  0  0  0  0  0  0  0  0  0  0  0
    9.5868  -38.3813   30.3697 H   0  0  0  0  0  0  0  0  0  0  0  0
    8.0980  -39.3824   32.0328 H   0  0  0  0  0  0  0  0  0  0  0  0
    8.8365  -41.1778   33.4775 H   0  0  0  0  0  0  0  0  0  0  0  0
    8.9070  -43.0549   33.9381 H   0  0  0  0  0  0  0  0  0  0  0  0
    8.1270  -44.7199   35.4792 H   0  0  0  0  0  0  0  0  0  0  0  0
   11.9272  -47.4732   36.0919 H   0  0  0  0  0  0  0  0  0  0  0  0
   13.5012  -48.2230   36.9648 H   0  0  0  0  0  0  0  0  0  0  0  0
   14.8004  -47.1947   37.5508 H   0  0  0  0  0  0  0  0  0  0  0  0
   15.1359  -52.0212   36.3975 H   0  0  0  0  0  0  0  0  0  0  0  0
   16.5746  -53.9768   36.0291 H   0  0  0  0  0  0  0  0  0  0  0  0
  1  2  2  0  0  0  0
  1 37  1  0  0  0  0
  1 38  1  0  0  0  0
  2  3  1  0  0  0  0
  2 39  1  0  0  0  0
  3  4  2  0  0  0  0
  3  5  1  0  0  0  0
  5  6  1  0  0  0  0
  5 40  1  0  0  0  0
  6  7  2  0  0  0  0
  6 36  1  0  0  0  0
  7  8  1  0  0  0  0
  7 41  1  0  0  0  0
  8  9  2  0  0  0  0
  8 42  1  0  0  0  0
  9 10  1  0  0  0  0
  9 35  1  0  0  0  0
 10 11  2  0  0  0  0
 10 12  1  0  0  0  0
 12 13  1  0  0  0  0
 12 34  1  0  0  0  0
 13 14  1  0  0  0  0
 13 43  1  0  0  0  0
 13 44  1  0  0  0  0
 14 15  1  0  0  0  0
 14 45  1  0  0  0  0
 14 46  1  0  0  0  0
 15 16  1  0  0  0  0
 15 34  1  0  0  0  0
 15 47  1  6  0  0  0
 16 17  2  0  0  0  0
 16 33  1  0  0  0  0
 17 18  1  0  0  0  0
 17 48  1  0  0  0  0
 18 19  2  0  0  0  0
 18 32  1  0  0  0  0
 19 20  1  0  0  0  0
 19 29  1  0  0  0  0
 20 21  2  0  0  0  0
 20 28  1  0  0  0  0
 21 22  1  0  0  0  0
 21 49  1  0  0  0  0
 22 23  1  0  0  0  0
 22 50  1  0  0  0  0
 23 24  2  0  0  0  0
 23 28  1  0  0  0  0
 24 25  1  0  0  0  0
 24 51  1  0  0  0  0
 25 26  2  0  0  0  0
 25 52  1  0  0  0  0
 26 27  1  0  0  0  0
 26 53  1  0  0  0  0
 27 28  2  0  0  0  0
 27 54  1  0  0  0  0
 29 30  2  0  0  0  0
 29 55  1  0  0  0  0
 30 31  1  0  0  0  0
 30 56  1  0  0  0  0
 31 32  2  0  0  0  0
 32 33  1  0  0  0  0
 33 57  1  0  0  0  0
 34 58  1  0  0  0  0
 34 59  1  0  0  0  0
 35 36  2  0  0  0  0
 35 60  1  0  0  0  0
 36 61  1  0  0  0  0
M  END
$$$$
