A47
 OpenBabel11162314363D

 61 66  0  0  1  0  0  0  0  0999 V2000
   19.4213  -58.1125   36.2876 C   0  0  0  0  0  0  0  0  0  0  0  0
   20.3350  -57.1285   36.4246 C   0  0  0  0  0  0  0  0  0  0  0  0
   20.0226  -55.7048   36.4071 C   0  0  0  0  0  0  0  0  0  0  0  0
   20.7818  -54.8389   36.8367 O   0  0  0  0  0  0  0  0  0  0  0  0
   18.8256  -55.4313   35.8608 N   0  0  0  0  0  0  0  0  0  0  0  0
   18.2958  -54.1556   35.5500 C   0  0  0  0  0  0  0  0  0  0  0  0
   18.4927  -53.0104   36.3591 C   0  0  0  0  0  0  0  0  0  0  0  0
   17.9658  -51.7631   35.9643 C   0  0  0  0  0  0  0  0  0  0  0  0
   17.2193  -51.6563   34.7705 C   0  0  0  0  0  0  0  0  0  0  0  0
   16.7350  -50.3400   34.2361 C   0  0  0  0  0  0  0  0  0  0  0  0
   16.9428  -50.1046   33.0506 O   0  0  0  0  0  0  0  0  0  0  0  0
   16.0130  -49.5018   35.0136 N   0  0  0  0  0  0  0  0  0  0  0  0
   15.6201  -49.6964   36.4103 C   0  0  0  0  0  0  0  0  0  0  0  0
   14.5011  -48.6834   36.6638 C   0  0  0  0  0  0  0  0  0  0  0  0
   14.7949  -47.5596   35.6798 C   0  0  2  0  0  0  0  0  0  0  0  0
   13.6639  -46.6213   35.3769 C   0  0  0  0  0  0  0  0  0  0  0  0
   13.7236  -45.3714   34.8188 C   0  0  0  0  0  0  0  0  0  0  0  0
   12.3775  -44.8498   34.7580 C   0  0  0  0  0  0  0  0  0  0  0  0
   11.7217  -43.6741   34.2974 C   0  0  0  0  0  0  0  0  0  0  0  0
   12.4192  -42.5693   33.6227 C   0  0  0  0  0  0  0  0  0  0  0  0
   12.1699  -41.2230   33.7276 C   0  0  0  0  0  0  0  0  0  0  0  0
   13.0625  -40.5238   32.9381 N   0  0  0  0  0  0  0  0  0  0  0  0
   13.9052  -41.3920   32.2770 C   0  0  0  0  0  0  0  0  0  0  0  0
   14.9577  -41.1613   31.3717 C   0  0  0  0  0  0  0  0  0  0  0  0
   15.6659  -42.2570   30.8473 C   0  0  0  0  0  0  0  0  0  0  0  0
   15.3002  -43.5614   31.2248 C   0  0  0  0  0  0  0  0  0  0  0  0
   14.2166  -43.7799   32.0924 C   0  0  0  0  0  0  0  0  0  0  0  0
   13.5082  -42.7049   32.6780 C   0  0  0  0  0  0  0  0  0  0  0  0
   10.3350  -43.5377   34.5391 C   0  0  0  0  0  0  0  0  0  0  0  0
    9.6390  -44.5565   35.2171 C   0  0  0  0  0  0  0  0  0  0  0  0
   10.2024  -45.7045   35.6373 N   0  0  0  0  0  0  0  0  0  0  0  0
   11.5351  -45.8154   35.3746 C   0  0  0  0  0  0  0  0  0  0  0  0
   12.3351  -46.9023   35.6635 N   0  0  0  0  0  0  0  0  0  0  0  0
   15.3806  -48.2924   34.4747 C   0  0  0  0  0  0  0  0  0  0  0  0
   17.0168  -52.8056   33.9819 C   0  0  0  0  0  0  0  0  0  0  0  0
   17.5354  -54.0495   34.3726 C   0  0  0  0  0  0  0  0  0  0  0  0
   18.3598  -57.9353   36.1581 H   0  0  0  0  0  0  0  0  0  0  0  0
   19.7469  -59.1432   36.3161 H   0  0  0  0  0  0  0  0  0  0  0  0
   21.3699  -57.4140   36.5574 H   0  0  0  0  0  0  0  0  0  0  0  0
   18.3368  -56.2230   35.4723 H   0  0  0  0  0  0  0  0  0  0  0  0
   19.0623  -53.0688   37.2737 H   0  0  0  0  0  0  0  0  0  0  0  0
   18.1698  -50.8908   36.5646 H   0  0  0  0  0  0  0  0  0  0  0  0
   15.2862  -50.7142   36.6144 H   0  0  0  0  0  0  0  0  0  0  0  0
   16.4697  -49.4749   37.0549 H   0  0  0  0  0  0  0  0  0  0  0  0
   13.5490  -49.1598   36.4242 H   0  0  0  0  0  0  0  0  0  0  0  0
   14.4627  -48.3358   37.6953 H   0  0  0  0  0  0  0  0  0  0  0  0
   15.6038  -46.9674   36.1115 H   0  0  0  0  0  0  0  0  0  0  0  0
   14.6186  -44.8621   34.4954 H   0  0  0  0  0  0  0  0  0  0  0  0
   11.4326  -40.7064   34.3235 H   0  0  0  0  0  0  0  0  0  0  0  0
   13.1053  -39.5203   32.8968 H   0  0  0  0  0  0  0  0  0  0  0  0
   15.2252  -40.1570   31.0735 H   0  0  0  0  0  0  0  0  0  0  0  0
   16.4757  -42.1002   30.1505 H   0  0  0  0  0  0  0  0  0  0  0  0
   15.8391  -44.4102   30.8248 H   0  0  0  0  0  0  0  0  0  0  0  0
   13.9352  -44.7987   32.3062 H   0  0  0  0  0  0  0  0  0  0  0  0
    9.8013  -42.6557   34.2162 H   0  0  0  0  0  0  0  0  0  0  0  0
    8.5806  -44.4516   35.4136 H   0  0  0  0  0  0  0  0  0  0  0  0
   11.9967  -47.7936   36.0252 H   0  0  0  0  0  0  0  0  0  0  0  0
   16.0813  -47.6657   33.9193 H   0  0  0  0  0  0  0  0  0  0  0  0
   14.5837  -48.5849   33.7895 H   0  0  0  0  0  0  0  0  0  0  0  0
   16.4723  -52.7363   33.0499 H   0  0  0  0  0  0  0  0  0  0  0  0
   17.3740  -54.9115   33.7432 H   0  0  0  0  0  0  0  0  0  0  0  0
  1  2  2  0  0  0  0
  1 37  1  0  0  0  0
  1 38  1  0  0  0  0
  2  3  1  0  0  0  0
  2 39  1  0  0  0  0
  3  4  2  0  0  0  0
  3  5  1  0  0  0  0
  5  6  1  0  0  0  0
  5 40  1  0  0  0  0
  6  7  2  0  0  0  0
  6 36  1  0  0  0  0
  7  8  1  0  0  0  0
  7 41  1  0  0  0  0
  8  9  2  0  0  0  0
  8 42  1  0  0  0  0
  9 10  1  0  0  0  0
  9 35  1  0  0  0  0
 10 11  2  0  0  0  0
 10 12  1  0  0  0  0
 12 13  1  0  0  0  0
 12 34  1  0  0  0  0
 13 14  1  0  0  0  0
 13 43  1  0  0  0  0
 13 44  1  0  0  0  0
 14 15  1  0  0  0  0
 14 45  1  0  0  0  0
 14 46  1  0  0  0  0
 15 16  1  0  0  0  0
 15 34  1  0  0  0  0
 15 47  1  1  0  0  0
 16 17  2  0  0  0  0
 16 33  1  0  0  0  0
 17 18  1  0  0  0  0
 17 48  1  0  0  0  0
 18 19  2  0  0  0  0
 18 32  1  0  0  0  0
 19 20  1  0  0  0  0
 19 29  1  0  0  0  0
 20 21  2  0  0  0  0
 20 28  1  0  0  0  0
 21 22  1  0  0  0  0
 21 49  1  0  0  0  0
 22 23  1  0  0  0  0
 22 50  1  0  0  0  0
 23 24  2  0  0  0  0
 23 28  1  0  0  0  0
 24 25  1  0  0  0  0
 24 51  1  0  0  0  0
 25 26  2  0  0  0  0
 25 52  1  0  0  0  0
 26 27  1  0  0  0  0
 26 53  1  0  0  0  0
 27 28  2  0  0  0  0
 27 54  1  0  0  0  0
 29 30  2  0  0  0  0
 29 55  1  0  0  0  0
 30 31  1  0  0  0  0
 30 56  1  0  0  0  0
 31 32  2  0  0  0  0
 32 33  1  0  0  0  0
 33 57  1  0  0  0  0
 34 58  1  0  0  0  0
 34 59  1  0  0  0  0
 35 36  2  0  0  0  0
 35 60  1  0  0  0  0
 36 61  1  0  0  0  0
M  END
$$$$
