*****
  -OEChem-06272316113D

 26 26  0     1  0  0  0  0  0999 V2000
    1.0653   -0.2834   -1.4185 C   0  0  0  0  0  0  0  0  0  0  0  0
   -0.2000   -0.5490   -1.7725 C   0  0  0  0  0  0  0  0  0  0  0  0
    1.6735   -0.2792   -0.0489 C   0  0  0  0  0  0  0  0  0  0  0  0
   -0.8785   -0.3788    1.5489 C   0  0  0  0  0  0  0  0  0  0  0  0
   -1.6725   -0.0016    0.2993 C   0  0  0  0  0  0  0  0  0  0  0  0
    0.2635    0.5715    1.9105 C   0  0  0  0  0  0  0  0  0  0  0  0
   -1.3918   -0.8919   -0.9212 C   0  0  1  0  0  0  0  0  0  0  0  0
    1.2384    0.9400    0.7800 C   0  0  2  0  0  0  0  0  0  0  0  0
    2.4588    1.6493    1.3798 C   0  0  0  0  0  0  0  0  0  0  0  0
   -2.5567   -0.7769   -1.7574 O   0  0  0  0  0  0  0  0  0  0  0  0
    1.7614   -0.0232   -2.2445 H   0  0  0  0  0  0  0  0  0  0  0  0
   -0.4179   -0.4543   -2.8777 H   0  0  0  0  0  0  0  0  0  0  0  0
    1.4547   -1.2022    0.4799 H   0  0  0  0  0  0  0  0  0  0  0  0
    2.7537   -0.2570   -0.1878 H   0  0  0  0  0  0  0  0  0  0  0  0
   -1.5517   -0.5208    2.4046 H   0  0  0  0  0  0  0  0  0  0  0  0
   -0.4461   -1.3719    1.3585 H   0  0  0  0  0  0  0  0  0  0  0  0
   -2.7404   -0.0492    0.5183 H   0  0  0  0  0  0  0  0  0  0  0  0
   -1.4674    1.0402    0.0475 H   0  0  0  0  0  0  0  0  0  0  0  0
   -0.2131    1.5084    2.2539 H   0  0  0  0  0  0  0  0  0  0  0  0
    0.8155    0.2003    2.7930 H   0  0  0  0  0  0  0  0  0  0  0  0
   -1.3816   -1.9502   -0.6170 H   0  0  0  0  0  0  0  0  0  0  0  0
    0.7331    1.6611    0.1117 H   0  0  0  0  0  0  0  0  0  0  0  0
    2.9808    0.9674    2.0441 H   0  0  0  0  0  0  0  0  0  0  0  0
    2.1303    2.5207    1.9378 H   0  0  0  0  0  0  0  0  0  0  0  0
    3.1243    1.9588    0.5798 H   0  0  0  0  0  0  0  0  0  0  0  0
   -2.4354   -1.4067   -2.4838 H   0  0  0  0  0  0  0  0  0  0  0  0
  1  2  2  0  0  0  0
  1  3  1  0  0  0  0
  2  7  1  0  0  0  0
  3  8  1  0  0  0  0
  4  5  1  0  0  0  0
  4  6  1  0  0  0  0
  5  7  1  0  0  0  0
  6  8  1  0  0  0  0
  7 10  1  0  0  0  0
  8  9  1  0  0  0  0
  1 11  1  0  0  0  0
  2 12  1  0  0  0  0
  3 13  1  0  0  0  0
  3 14  1  0  0  0  0
  4 15  1  0  0  0  0
  4 16  1  0  0  0  0
  5 17  1  0  0  0  0
  5 18  1  0  0  0  0
  6 19  1  0  0  0  0
  6 20  1  0  0  0  0
  7 21  1  6  0  0  0
  8 22  1  1  0  0  0
  9 23  1  0  0  0  0
  9 24  1  0  0  0  0
  9 25  1  0  0  0  0
 10 26  1  0  0  0  0
M  END
$$$$
