*****
  -OEChem-06272318183D

 68 72  0     1  0  0  0  0  0999 V2000
  -10.1233    0.3976    3.9946 C   0  0  0  0  0  0  0  0  0  0  0  0
  -10.0191    0.1213    5.1591 C   0  0  0  0  0  0  0  0  0  0  0  0
  -10.4406    1.3575   -0.1034 C   0  0  0  0  0  0  0  0  0  0  0  0
  -11.5677    1.4412    0.7141 C   0  0  0  0  0  0  0  0  0  0  0  0
   -5.0026   -0.9866   -3.1364 C   0  0  0  0  0  0  0  0  0  0  0  0
   -6.1346   -0.5932   -2.4227 C   0  0  0  0  0  0  0  0  0  0  0  0
   -9.1204    0.6433    1.7897 C   0  0  0  0  0  0  0  0  0  0  0  0
   -5.0620   -1.2495   -0.3597 C   0  0  0  0  0  0  0  0  0  0  0  0
   -9.5601    0.6171    7.5928 C   0  0  0  0  0  0  0  0  0  0  0  0
  -10.2474    0.7270    2.6073 C   0  0  0  0  0  0  0  0  0  0  0  0
   -9.8952   -0.2075    6.5457 C   0  0  0  0  0  0  0  0  0  0  0  0
   -9.2170    0.9584    0.4343 C   0  0  0  0  0  0  0  0  0  0  0  0
  -11.4711    1.1260    2.0694 C   0  0  0  0  0  0  0  0  0  0  0  0
   -3.9003   -1.5116   -2.4617 C   0  0  0  0  0  0  0  0  0  0  0  0
   -3.9300   -1.6429   -1.0734 C   0  0  0  0  0  0  0  0  0  0  0  0
   -6.1643   -0.7246   -1.0343 C   0  0  0  0  0  0  0  0  0  0  0  0
   -9.8671   -1.3087    8.4679 C   0  0  0  0  0  0  0  0  0  0  0  0
  -10.0135   -2.4692    9.2633 C   0  0  0  0  0  0  0  0  0  0  0  0
  -10.3561   -3.6265    8.6856 C   0  0  0  0  0  0  0  0  0  0  0  0
  -10.5617   -3.6062    7.2176 C   0  0  0  0  0  0  0  0  0  0  0  0
   -8.0279    0.8701   -0.4305 C   0  0  0  0  0  0  0  0  0  0  0  0
   -0.1424   -0.0915   -1.0817 C   0  0  0  0  0  0  0  0  0  0  0  0
    0.9917   -0.9303   -3.1418 C   0  0  0  0  0  0  0  0  0  0  0  0
   -1.3452   -0.9655   -1.3875 C   0  0  0  0  0  0  0  0  0  0  0  0
   -0.2112   -1.8040   -3.4486 C   0  0  0  0  0  0  0  0  0  0  0  0
  -12.6996    1.2280    2.9155 C   0  0  0  0  0  0  0  0  0  0  0  0
    2.3415    0.0283   -1.2761 C   0  0  0  0  0  0  0  0  0  0  0  0
   -2.6944   -1.9286   -3.2510 C   0  0  0  0  0  0  0  0  0  0  0  0
   -2.7609   -2.2003   -0.3297 C   0  0  0  0  0  0  0  0  0  0  0  0
   -9.5443   -0.0698    8.7798 N   0  0  0  0  0  0  0  0  0  0  0  0
  -10.4418   -2.5756    6.4397 N   0  0  0  0  0  0  0  0  0  0  0  0
  -10.0914   -1.4411    7.1084 N   0  0  0  0  0  0  0  0  0  0  0  0
   -7.2956   -0.3294   -0.3199 N   0  0  0  0  0  0  0  0  0  0  0  0
    1.1000   -0.7329   -1.6495 N   0  3  1  0  0  0  0  0  0  0  0  0
   -1.4541   -1.1645   -2.8795 N   0  3  2  0  0  0  0  0  0  0  0  0
   -7.7048    1.8056   -1.1594 O   0  0  0  0  0  0  0  0  0  0  0  0
   -2.3731   -3.4335   -0.7683 F   0  0  0  0  0  0  0  0  0  0  0  0
   -1.6419   -1.4229   -0.4123 F   0  0  0  0  0  0  0  0  0  0  0  0
   -3.0102   -2.3458    1.0035 F   0  0  0  0  0  0  0  0  0  0  0  0
  -10.5284    1.6046   -1.1585 H   0  0  0  0  0  0  0  0  0  0  0  0
  -12.5161    1.7532    0.2847 H   0  0  0  0  0  0  0  0  0  0  0  0
   -4.9894   -0.8812   -4.2181 H   0  0  0  0  0  0  0  0  0  0  0  0
   -6.9878   -0.1866   -2.9594 H   0  0  0  0  0  0  0  0  0  0  0  0
   -8.1629    0.3320    2.2036 H   0  0  0  0  0  0  0  0  0  0  0  0
   -5.0843   -1.3523    0.7232 H   0  0  0  0  0  0  0  0  0  0  0  0
   -9.3292    1.6726    7.5580 H   0  0  0  0  0  0  0  0  0  0  0  0
   -9.8469   -2.4102   10.3330 H   0  0  0  0  0  0  0  0  0  0  0  0
  -10.4858   -4.5511    9.2311 H   0  0  0  0  0  0  0  0  0  0  0  0
  -10.8420   -4.5754    6.7739 H   0  0  0  0  0  0  0  0  0  0  0  0
   -0.2359    0.9092   -1.5185 H   0  0  0  0  0  0  0  0  0  0  0  0
    0.0008   -0.0038    0.0002 H   0  0  0  0  0  0  0  0  0  0  0  0
    1.9134   -1.4191   -3.4739 H   0  0  0  0  0  0  0  0  0  0  0  0
    0.9150    0.0585   -3.6084 H   0  0  0  0  0  0  0  0  0  0  0  0
   -1.2682   -1.9534   -0.9197 H   0  0  0  0  0  0  0  0  0  0  0  0
   -2.2670   -0.4768   -1.0551 H   0  0  0  0  0  0  0  0  0  0  0  0
   -0.3547   -1.8900   -4.5307 H   0  0  0  0  0  0  0  0  0  0  0  0
   -0.1171   -2.8052   -3.0129 H   0  0  0  0  0  0  0  0  0  0  0  0
  -13.2375    0.2736    2.9177 H   0  0  0  0  0  0  0  0  0  0  0  0
  -12.4462    1.4905    3.9494 H   0  0  0  0  0  0  0  0  0  0  0  0
  -13.3722    2.0093    2.5420 H   0  0  0  0  0  0  0  0  0  0  0  0
    2.2699    1.0226   -1.7207 H   0  0  0  0  0  0  0  0  0  0  0  0
    2.3824    0.0873   -0.1868 H   0  0  0  0  0  0  0  0  0  0  0  0
    3.1999   -0.5176   -1.6722 H   0  0  0  0  0  0  0  0  0  0  0  0
   -2.4682   -2.9892   -3.0977 H   0  0  0  0  0  0  0  0  0  0  0  0
   -2.8506   -1.7724   -4.3239 H   0  0  0  0  0  0  0  0  0  0  0  0
   -7.6397   -0.9995    0.3774 H   0  0  0  0  0  0  0  0  0  0  0  0
    1.1890   -1.6646   -1.2209 H   0  0  0  0  0  0  0  0  0  0  0  0
   -1.5454   -0.2332   -3.3085 H   0  0  0  0  0  0  0  0  0  0  0  0
  1  2  3  0  0  0  0
  1 10  1  0  0  0  0
  2 11  1  0  0  0  0
  3  4  1  0  0  0  0
  3 12  2  0  0  0  0
  4 13  2  0  0  0  0
  5  6  1  0  0  0  0
  5 14  2  0  0  0  0
  6 16  2  0  0  0  0
  7 10  2  0  0  0  0
  7 12  1  0  0  0  0
  8 15  2  0  0  0  0
  8 16  1  0  0  0  0
  9 11  2  0  0  0  0
  9 30  1  0  0  0  0
 10 13  1  0  0  0  0
 11 32  1  0  0  0  0
 12 21  1  0  0  0  0
 13 26  1  0  0  0  0
 14 15  1  0  0  0  0
 14 28  1  0  0  0  0
 15 29  1  0  0  0  0
 16 33  1  0  0  0  0
 17 18  1  0  0  0  0
 17 30  2  0  0  0  0
 17 32  1  0  0  0  0
 18 19  2  0  0  0  0
 19 20  1  0  0  0  0
 20 31  2  0  0  0  0
 21 33  1  0  0  0  0
 21 36  2  0  0  0  0
 22 24  1  0  0  0  0
 22 34  1  0  0  0  0
 23 25  1  0  0  0  0
 23 34  1  0  0  0  0
 24 35  1  0  0  0  0
 25 35  1  0  0  0  0
 27 34  1  0  0  0  0
 28 35  1  0  0  0  0
 29 37  1  0  0  0  0
 29 38  1  0  0  0  0
 29 39  1  0  0  0  0
 31 32  1  0  0  0  0
  3 40  1  0  0  0  0
  4 41  1  0  0  0  0
  5 42  1  0  0  0  0
  6 43  1  0  0  0  0
  7 44  1  0  0  0  0
  8 45  1  0  0  0  0
  9 46  1  0  0  0  0
 18 47  1  0  0  0  0
 19 48  1  0  0  0  0
 20 49  1  0  0  0  0
 22 50  1  0  0  0  0
 22 51  1  0  0  0  0
 23 52  1  0  0  0  0
 23 53  1  0  0  0  0
 24 54  1  0  0  0  0
 24 55  1  0  0  0  0
 25 56  1  0  0  0  0
 25 57  1  0  0  0  0
 26 58  1  0  0  0  0
 26 59  1  0  0  0  0
 26 60  1  0  0  0  0
 27 61  1  0  0  0  0
 27 62  1  0  0  0  0
 27 63  1  0  0  0  0
 28 64  1  0  0  0  0
 28 65  1  0  0  0  0
 33 66  1  0  0  0  0
 34 67  1  6  0  0  0
 35 68  1  6  0  0  0
M  CHG  2  34   1  35   1
M  END
$$$$
