*****
  -OEChem-06272316113D

 26 26  0     1  0  0  0  0  0999 V2000
    0.9941   -1.1538   -1.0190 C   0  0  0  0  0  0  0  0  0  0  0  0
   -0.3082   -1.4183   -1.1952 C   0  0  0  0  0  0  0  0  0  0  0  0
    1.8063   -0.1988   -0.1927 C   0  0  0  0  0  0  0  0  0  0  0  0
   -0.6980   -0.1062    1.6462 C   0  0  0  0  0  0  0  0  0  0  0  0
   -1.6567    0.1280    0.4870 C   0  0  0  0  0  0  0  0  0  0  0  0
    0.4379    0.9105    1.6660 C   0  0  0  0  0  0  0  0  0  0  0  0
   -1.6029   -0.9388   -0.6031 C   0  0  1  0  0  0  0  0  0  0  0  0
    1.1828    1.0996    0.3336 C   0  0  2  0  0  0  0  0  0  0  0  0
    2.2840    2.1510    0.5479 C   0  0  0  0  0  0  0  0  0  0  0  0
   -2.4392   -0.4732   -1.6707 O   0  0  0  0  0  0  0  0  0  0  0  0
    1.6738   -1.8351   -1.6814 H   0  0  0  0  0  0  0  0  0  0  0  0
   -0.4800   -2.1928   -2.0654 H   0  0  0  0  0  0  0  0  0  0  0  0
    2.2919   -0.7553    0.6577 H   0  0  0  0  0  0  0  0  0  0  0  0
    2.7004    0.0598   -0.8241 H   0  0  0  0  0  0  0  0  0  0  0  0
   -1.2264   -0.1237    2.5920 H   0  0  0  0  0  0  0  0  0  0  0  0
   -0.2677   -1.0952    1.5064 H   0  0  0  0  0  0  0  0  0  0  0  0
   -2.6808    0.1812    0.8670 H   0  0  0  0  0  0  0  0  0  0  0  0
   -1.4561    1.1111    0.0519 H   0  0  0  0  0  0  0  0  0  0  0  0
   -0.0169    1.8787    1.9291 H   0  0  0  0  0  0  0  0  0  0  0  0
    1.1465    0.6940    2.4792 H   0  0  0  0  0  0  0  0  0  0  0  0
   -2.2033   -1.8471   -0.2305 H   0  0  0  0  0  0  0  0  0  0  0  0
    0.4846    1.4979   -0.4078 H   0  0  0  0  0  0  0  0  0  0  0  0
    2.9949    1.7832    1.2814 H   0  0  0  0  0  0  0  0  0  0  0  0
    1.8363    3.0731    0.9057 H   0  0  0  0  0  0  0  0  0  0  0  0
    2.7939    2.3349   -0.3928 H   0  0  0  0  0  0  0  0  0  0  0  0
   -3.2637   -0.1714   -1.2607 H   0  0  0  0  0  0  0  0  0  0  0  0
  1  2  2  0  0  0  0
  1  3  1  0  0  0  0
  2  7  1  0  0  0  0
  3  8  1  0  0  0  0
  4  5  1  0  0  0  0
  4  6  1  0  0  0  0
  5  7  1  0  0  0  0
  6  8  1  0  0  0  0
  7 10  1  0  0  0  0
  8  9  1  0  0  0  0
  1 11  1  0  0  0  0
  2 12  1  0  0  0  0
  3 13  1  0  0  0  0
  3 14  1  0  0  0  0
  4 15  1  0  0  0  0
  4 16  1  0  0  0  0
  5 17  1  0  0  0  0
  5 18  1  0  0  0  0
  6 19  1  0  0  0  0
  6 20  1  0  0  0  0
  7 21  1  6  0  0  0
  8 22  1  1  0  0  0
  9 23  1  0  0  0  0
  9 24  1  0  0  0  0
  9 25  1  0  0  0  0
 10 26  1  0  0  0  0
M  END
$$$$
