*****
 OpenBabel06272316113D

 26 26  0  0  1  0  0  0  0  0999 V2000
    0.9064   -0.2944   -0.1527 C   0  0  0  0  0  0  0  0  0  0  0  0
    2.4244   -0.1082   -0.0726 C   0  0  2  0  0  0  0  0  0  0  0  0
    2.7688    1.2134    0.6334 C   0  0  0  0  0  0  0  0  0  0  0  0
    2.4404    2.5050   -0.1209 C   0  0  0  0  0  0  0  0  0  0  0  0
    3.2201    2.8209   -1.4050 C   0  0  0  0  0  0  0  0  0  0  0  0
    4.7268    2.5463   -1.4058 C   0  0  1  0  0  0  0  0  0  0  0  0
    5.3438    3.1988   -0.2986 O   0  0  0  0  0  0  0  0  0  0  0  0
    5.2155    1.1224   -1.4420 C   0  0  0  0  0  0  0  0  0  0  0  0
    4.5546   -0.0442   -1.4665 C   0  0  0  0  0  0  0  0  0  0  0  0
    3.0693   -0.2855   -1.4559 C   0  0  0  0  0  0  0  0  0  0  0  0
    0.4538   -0.1937    0.8405 H   0  0  0  0  0  0  0  0  0  0  0  0
    0.6556   -1.2902   -0.5310 H   0  0  0  0  0  0  0  0  0  0  0  0
    0.4406    0.4443   -0.8120 H   0  0  0  0  0  0  0  0  0  0  0  0
    2.8060   -0.9132    0.5721 H   0  0  0  0  0  0  0  0  0  0  0  0
    3.8225    1.1976    0.9282 H   0  0  0  0  0  0  0  0  0  0  0  0
    2.2264    1.2421    1.5881 H   0  0  0  0  0  0  0  0  0  0  0  0
    2.6011    3.3368    0.5772 H   0  0  0  0  0  0  0  0  0  0  0  0
    1.3698    2.5308   -0.3574 H   0  0  0  0  0  0  0  0  0  0  0  0
    3.0833    3.8977   -1.5824 H   0  0  0  0  0  0  0  0  0  0  0  0
    2.7502    2.3434   -2.2697 H   0  0  0  0  0  0  0  0  0  0  0  0
    5.1397    3.0326   -2.2978 H   0  0  0  0  0  0  0  0  0  0  0  0
    4.9904    2.8008    0.5149 H   0  0  0  0  0  0  0  0  0  0  0  0
    6.3072    1.0602   -1.4604 H   0  0  0  0  0  0  0  0  0  0  0  0
    5.1559   -0.9549   -1.4982 H   0  0  0  0  0  0  0  0  0  0  0  0
    2.9013   -1.3198   -1.7853 H   0  0  0  0  0  0  0  0  0  0  0  0
    2.5701    0.3166   -2.2191 H   0  0  0  0  0  0  0  0  0  0  0  0
  1  2  1  0  0  0  0
  1 11  1  0  0  0  0
  1 12  1  0  0  0  0
  1 13  1  0  0  0  0
  2  3  1  0  0  0  0
  2 10  1  0  0  0  0
  2 14  1  1  0  0  0
  3  4  1  0  0  0  0
  3 15  1  0  0  0  0
  3 16  1  0  0  0  0
  4  5  1  0  0  0  0
  4 17  1  0  0  0  0
  4 18  1  0  0  0  0
  5  6  1  0  0  0  0
  5 19  1  0  0  0  0
  5 20  1  0  0  0  0
  6  7  1  0  0  0  0
  6  8  1  0  0  0  0
  6 21  1  6  0  0  0
  7 22  1  0  0  0  0
  8  9  2  0  0  0  0
  8 23  1  0  0  0  0
  9 10  1  0  0  0  0
  9 24  1  0  0  0  0
 10 25  1  0  0  0  0
 10 26  1  0  0  0  0
M  END
$$$$
