*****
  -OEChem-06272317433D

 26 26  0     1  0  0  0  0  0999 V2000
    1.0449    0.8167    1.1500 C   0  0  0  0  0  0  0  0  0  0  0  0
    1.0445   -0.5131    1.3218 C   0  0  0  0  0  0  0  0  0  0  0  0
   -0.0961    1.6268    0.6071 C   0  0  0  0  0  0  0  0  0  0  0  0
    0.2606   -0.8433   -1.5588 C   0  0  0  0  0  0  0  0  0  0  0  0
    0.0194   -1.9150   -0.4881 C   0  0  0  0  0  0  0  0  0  0  0  0
   -0.7326    0.3253   -1.5502 C   0  0  0  0  0  0  0  0  0  0  0  0
   -0.0979   -1.4074    0.9503 C   0  0  1  0  0  0  0  0  0  0  0  0
   -0.2024    1.6424   -0.9312 C   0  0  2  0  0  0  0  0  0  0  0  0
   -1.1384    2.7888   -1.3444 C   0  0  0  0  0  0  0  0  0  0  0  0
   -0.1020   -2.5212    1.8435 O   0  0  0  0  0  0  0  0  0  0  0  0
    1.9457    1.3653    1.4158 H   0  0  0  0  0  0  0  0  0  0  0  0
    1.9481   -0.9814    1.7051 H   0  0  0  0  0  0  0  0  0  0  0  0
   -1.0464    1.3072    1.0515 H   0  0  0  0  0  0  0  0  0  0  0  0
    0.0527    2.6533    0.9691 H   0  0  0  0  0  0  0  0  0  0  0  0
    1.2924   -0.4764   -1.5087 H   0  0  0  0  0  0  0  0  0  0  0  0
    0.1807   -1.3488   -2.5306 H   0  0  0  0  0  0  0  0  0  0  0  0
   -0.8970   -2.4679   -0.7345 H   0  0  0  0  0  0  0  0  0  0  0  0
    0.8230   -2.6614   -0.5521 H   0  0  0  0  0  0  0  0  0  0  0  0
   -0.9749    0.5328   -2.6018 H   0  0  0  0  0  0  0  0  0  0  0  0
   -1.6799    0.0327   -1.0811 H   0  0  0  0  0  0  0  0  0  0  0  0
   -1.0574   -0.9012    1.0935 H   0  0  0  0  0  0  0  0  0  0  0  0
    0.7858    1.8601   -1.3578 H   0  0  0  0  0  0  0  0  0  0  0  0
   -2.1293    2.6080   -0.9394 H   0  0  0  0  0  0  0  0  0  0  0  0
   -1.1913    2.8373   -2.4277 H   0  0  0  0  0  0  0  0  0  0  0  0
   -0.7520    3.7263   -0.9565 H   0  0  0  0  0  0  0  0  0  0  0  0
   -0.8485   -3.0803    1.5804 H   0  0  0  0  0  0  0  0  0  0  0  0
  1  2  2  0  0  0  0
  1  3  1  0  0  0  0
  2  7  1  0  0  0  0
  3  8  1  0  0  0  0
  4  5  1  0  0  0  0
  4  6  1  0  0  0  0
  5  7  1  0  0  0  0
  6  8  1  0  0  0  0
  7 10  1  0  0  0  0
  8  9  1  0  0  0  0
  1 11  1  0  0  0  0
  2 12  1  0  0  0  0
  3 13  1  0  0  0  0
  3 14  1  0  0  0  0
  4 15  1  0  0  0  0
  4 16  1  0  0  0  0
  5 17  1  0  0  0  0
  5 18  1  0  0  0  0
  6 19  1  0  0  0  0
  6 20  1  0  0  0  0
  7 21  1  6  0  0  0
  8 22  1  1  0  0  0
  9 23  1  0  0  0  0
  9 24  1  0  0  0  0
  9 25  1  0  0  0  0
 10 26  1  0  0  0  0
M  END
$$$$
*****
  -OEChem-06272317433D

 26 26  0     1  0  0  0  0  0999 V2000
    1.0975    0.2905   -1.4833 C   0  0  0  0  0  0  0  0  0  0  0  0
   -0.1717    0.1257   -1.8858 C   0  0  0  0  0  0  0  0  0  0  0  0
    1.7403   -0.2239   -0.2335 C   0  0  0  0  0  0  0  0  0  0  0  0
   -1.0641   -0.2028    1.3466 C   0  0  0  0  0  0  0  0  0  0  0  0
   -1.1802   -1.1796    0.1709 C   0  0  0  0  0  0  0  0  0  0  0  0
   -0.0655    0.9491    1.2301 C   0  0  0  0  0  0  0  0  0  0  0  0
   -1.3341   -0.5694   -1.2288 C   0  0  1  0  0  0  0  0  0  0  0  0
    1.4184    0.5858    1.0329 C   0  0  2  0  0  0  0  0  0  0  0  0
    1.9841   -0.1324    2.2622 C   0  0  0  0  0  0  0  0  0  0  0  0
   -2.4246    0.3569   -1.2114 O   0  0  0  0  0  0  0  0  0  0  0  0
    1.7530    0.8841   -2.1468 H   0  0  0  0  0  0  0  0  0  0  0  0
   -0.4256    0.6383   -2.8688 H   0  0  0  0  0  0  0  0  0  0  0  0
    1.5021   -1.2839   -0.0802 H   0  0  0  0  0  0  0  0  0  0  0  0
    2.8248   -0.2032   -0.4106 H   0  0  0  0  0  0  0  0  0  0  0  0
   -2.0699    0.1841    1.6181 H   0  0  0  0  0  0  0  0  0  0  0  0
   -0.7764   -0.8131    2.2293 H   0  0  0  0  0  0  0  0  0  0  0  0
   -0.2944   -1.8367    0.1612 H   0  0  0  0  0  0  0  0  0  0  0  0
   -2.0225   -1.8651    0.3659 H   0  0  0  0  0  0  0  0  0  0  0  0
   -0.3793    1.5402    0.3459 H   0  0  0  0  0  0  0  0  0  0  0  0
   -0.1803    1.6521    2.0801 H   0  0  0  0  0  0  0  0  0  0  0  0
   -1.7222   -1.3823   -1.9311 H   0  0  0  0  0  0  0  0  0  0  0  0
    1.9939    1.5602    0.9576 H   0  0  0  0  0  0  0  0  0  0  0  0
    1.4719   -1.0807    2.3923 H   0  0  0  0  0  0  0  0  0  0  0  0
    1.8332    0.4863    3.1415 H   0  0  0  0  0  0  0  0  0  0  0  0
    3.0457   -0.3088    2.1190 H   0  0  0  0  0  0  0  0  0  0  0  0
   -2.6096    0.5792   -2.1362 H   0  0  0  0  0  0  0  0  0  0  0  0
  1  2  2  0  0  0  0
  1  3  1  0  0  0  0
  2  7  1  0  0  0  0
  3  8  1  0  0  0  0
  4  5  1  0  0  0  0
  4  6  1  0  0  0  0
  5  7  1  0  0  0  0
  6  8  1  0  0  0  0
  7 10  1  0  0  0  0
  8  9  1  0  0  0  0
  1 11  1  0  0  0  0
  2 12  1  0  0  0  0
  3 13  1  0  0  0  0
  3 14  1  0  0  0  0
  4 15  1  0  0  0  0
  4 16  1  0  0  0  0
  5 17  1  0  0  0  0
  5 18  1  0  0  0  0
  6 19  1  0  0  0  0
  6 20  1  0  0  0  0
  7 21  1  6  0  0  0
  8 22  1  1  0  0  0
  9 23  1  0  0  0  0
  9 24  1  0  0  0  0
  9 25  1  0  0  0  0
 10 26  1  0  0  0  0
M  END
$$$$
*****
  -OEChem-06272317433D

 26 26  0     1  0  0  0  0  0999 V2000
    0.9498    0.7485   -1.2878 C   0  0  0  0  0  0  0  0  0  0  0  0
   -0.3496    0.6729   -1.6104 C   0  0  0  0  0  0  0  0  0  0  0  0
    1.6556   -0.2009   -0.3685 C   0  0  0  0  0  0  0  0  0  0  0  0
   -0.8652   -0.4224    1.4306 C   0  0  0  0  0  0  0  0  0  0  0  0
   -1.8443   -0.1421    0.2806 C   0  0  0  0  0  0  0  0  0  0  0  0
    0.2283    0.6355    1.6300 C   0  0  0  0  0  0  0  0  0  0  0  0
   -1.3004   -0.3876   -1.1315 C   0  0  1  0  0  0  0  0  0  0  0  0
    1.6329    0.2755    1.0929 C   0  0  2  0  0  0  0  0  0  0  0  0
    2.3150   -0.7670    1.9863 C   0  0  0  0  0  0  0  0  0  0  0  0
   -2.4221   -0.4124   -2.0222 O   0  0  0  0  0  0  0  0  0  0  0  0
    1.5385    1.5521   -1.7086 H   0  0  0  0  0  0  0  0  0  0  0  0
   -0.7674    1.4736   -2.2289 H   0  0  0  0  0  0  0  0  0  0  0  0
    1.2481   -1.2041   -0.4526 H   0  0  0  0  0  0  0  0  0  0  0  0
    2.6867   -0.2613   -0.7145 H   0  0  0  0  0  0  0  0  0  0  0  0
   -1.4113   -0.5977    2.3642 H   0  0  0  0  0  0  0  0  0  0  0  0
   -0.3753   -1.3767    1.1974 H   0  0  0  0  0  0  0  0  0  0  0  0
   -2.7416   -0.7585    0.4157 H   0  0  0  0  0  0  0  0  0  0  0  0
   -2.1969    0.8936    0.3651 H   0  0  0  0  0  0  0  0  0  0  0  0
   -0.1099    1.5336    1.0873 H   0  0  0  0  0  0  0  0  0  0  0  0
    0.2861    0.9437    2.6856 H   0  0  0  0  0  0  0  0  0  0  0  0
   -0.8549   -1.3844   -1.1944 H   0  0  0  0  0  0  0  0  0  0  0  0
    2.2649    1.2039    1.1548 H   0  0  0  0  0  0  0  0  0  0  0  0
    1.7433   -1.6897    1.9637 H   0  0  0  0  0  0  0  0  0  0  0  0
    2.3619   -0.3929    3.0044 H   0  0  0  0  0  0  0  0  0  0  0  0
    3.3200   -0.9525    1.6199 H   0  0  0  0  0  0  0  0  0  0  0  0
   -3.0180   -1.1018   -1.6926 H   0  0  0  0  0  0  0  0  0  0  0  0
  1  2  2  0  0  0  0
  1  3  1  0  0  0  0
  2  7  1  0  0  0  0
  3  8  1  0  0  0  0
  4  5  1  0  0  0  0
  4  6  1  0  0  0  0
  5  7  1  0  0  0  0
  6  8  1  0  0  0  0
  7 10  1  0  0  0  0
  8  9  1  0  0  0  0
  1 11  1  0  0  0  0
  2 12  1  0  0  0  0
  3 13  1  0  0  0  0
  3 14  1  0  0  0  0
  4 15  1  0  0  0  0
  4 16  1  0  0  0  0
  5 17  1  0  0  0  0
  5 18  1  0  0  0  0
  6 19  1  0  0  0  0
  6 20  1  0  0  0  0
  7 21  1  6  0  0  0
  8 22  1  1  0  0  0
  9 23  1  0  0  0  0
  9 24  1  0  0  0  0
  9 25  1  0  0  0  0
 10 26  1  0  0  0  0
M  END
$$$$
*****
  -OEChem-06272317433D

 26 26  0     1  0  0  0  0  0999 V2000
    1.1271   -0.4774    1.0926 C   0  0  0  0  0  0  0  0  0  0  0  0
   -0.0615   -0.8634    1.5796 C   0  0  0  0  0  0  0  0  0  0  0  0
    1.4801   -0.3448   -0.3574 C   0  0  0  0  0  0  0  0  0  0  0  0
   -1.3647    0.5963   -1.0471 C   0  0  0  0  0  0  0  0  0  0  0  0
   -2.0431   -0.0911    0.1495 C   0  0  0  0  0  0  0  0  0  0  0  0
   -0.2389    1.5676   -0.6715 C   0  0  0  0  0  0  0  0  0  0  0  0
   -1.2906   -1.2558    0.8065 C   0  0  1  0  0  0  0  0  0  0  0  0
    1.1893    1.0481   -0.9402 C   0  0  2  0  0  0  0  0  0  0  0  0
    2.2117    2.0792   -0.4470 C   0  0  0  0  0  0  0  0  0  0  0  0
   -1.0094   -2.2587   -0.1650 O   0  0  0  0  0  0  0  0  0  0  0  0
    1.9167   -0.2443    1.8072 H   0  0  0  0  0  0  0  0  0  0  0  0
   -0.1351   -0.9529    2.6870 H   0  0  0  0  0  0  0  0  0  0  0  0
    2.5218   -0.6239   -0.5329 H   0  0  0  0  0  0  0  0  0  0  0  0
    0.8853   -1.0928   -0.8919 H   0  0  0  0  0  0  0  0  0  0  0  0
   -1.0146   -0.1470   -1.7674 H   0  0  0  0  0  0  0  0  0  0  0  0
   -2.1459    1.1645   -1.5635 H   0  0  0  0  0  0  0  0  0  0  0  0
   -2.2487    0.6652    0.9258 H   0  0  0  0  0  0  0  0  0  0  0  0
   -3.0442   -0.4321   -0.1660 H   0  0  0  0  0  0  0  0  0  0  0  0
   -0.3855    2.4628   -1.2904 H   0  0  0  0  0  0  0  0  0  0  0  0
   -0.3412    1.9039    0.3664 H   0  0  0  0  0  0  0  0  0  0  0  0
   -2.0224   -1.7717    1.5160 H   0  0  0  0  0  0  0  0  0  0  0  0
    1.3154    0.9887   -2.0553 H   0  0  0  0  0  0  0  0  0  0  0  0
    2.1329    2.1768    0.6314 H   0  0  0  0  0  0  0  0  0  0  0  0
    2.0102    3.0379   -0.9148 H   0  0  0  0  0  0  0  0  0  0  0  0
    3.2118    1.7487   -0.7104 H   0  0  0  0  0  0  0  0  0  0  0  0
   -0.6688   -3.0239    0.3223 H   0  0  0  0  0  0  0  0  0  0  0  0
  1  2  2  0  0  0  0
  1  3  1  0  0  0  0
  2  7  1  0  0  0  0
  3  8  1  0  0  0  0
  4  5  1  0  0  0  0
  4  6  1  0  0  0  0
  5  7  1  0  0  0  0
  6  8  1  0  0  0  0
  7 10  1  0  0  0  0
  8  9  1  0  0  0  0
  1 11  1  0  0  0  0
  2 12  1  0  0  0  0
  3 13  1  0  0  0  0
  3 14  1  0  0  0  0
  4 15  1  0  0  0  0
  4 16  1  0  0  0  0
  5 17  1  0  0  0  0
  5 18  1  0  0  0  0
  6 19  1  0  0  0  0
  6 20  1  0  0  0  0
  7 21  1  6  0  0  0
  8 22  1  1  0  0  0
  9 23  1  0  0  0  0
  9 24  1  0  0  0  0
  9 25  1  0  0  0  0
 10 26  1  0  0  0  0
M  END
$$$$
*****
  -OEChem-06272317433D

 26 26  0     1  0  0  0  0  0999 V2000
    1.0994    0.2707   -1.3369 C   0  0  0  0  0  0  0  0  0  0  0  0
   -0.0985    0.0474   -1.8942 C   0  0  0  0  0  0  0  0  0  0  0  0
    1.6587   -0.2383   -0.0428 C   0  0  0  0  0  0  0  0  0  0  0  0
   -1.2707    0.1599    1.0409 C   0  0  0  0  0  0  0  0  0  0  0  0
   -1.3757   -1.0508    0.1029 C   0  0  0  0  0  0  0  0  0  0  0  0
    0.0027    0.1719    1.8883 C   0  0  0  0  0  0  0  0  0  0  0  0
   -1.2950   -0.7033   -1.3873 C   0  0  1  0  0  0  0  0  0  0  0  0
    1.2858    0.6324    1.1690 C   0  0  2  0  0  0  0  0  0  0  0  0
    2.4397    0.6268    2.1819 C   0  0  0  0  0  0  0  0  0  0  0  0
   -2.4463    0.0834   -1.7219 O   0  0  0  0  0  0  0  0  0  0  0  0
    1.7854    0.9395   -1.9117 H   0  0  0  0  0  0  0  0  0  0  0  0
   -0.2511    0.5522   -2.9025 H   0  0  0  0  0  0  0  0  0  0  0  0
    1.3687   -1.2763    0.1269 H   0  0  0  0  0  0  0  0  0  0  0  0
    2.7461   -0.2524   -0.1582 H   0  0  0  0  0  0  0  0  0  0  0  0
   -1.3794    1.0885    0.4827 H   0  0  0  0  0  0  0  0  0  0  0  0
   -2.1287    0.1076    1.7146 H   0  0  0  0  0  0  0  0  0  0  0  0
   -0.5778   -1.7570    0.3365 H   0  0  0  0  0  0  0  0  0  0  0  0
   -2.3086   -1.5770    0.3102 H   0  0  0  0  0  0  0  0  0  0  0  0
   -0.1827    0.8778    2.7142 H   0  0  0  0  0  0  0  0  0  0  0  0
    0.1598   -0.8034    2.3740 H   0  0  0  0  0  0  0  0  0  0  0  0
   -1.4441   -1.6397   -1.9917 H   0  0  0  0  0  0  0  0  0  0  0  0
    1.1467    1.6716    0.8369 H   0  0  0  0  0  0  0  0  0  0  0  0
    2.6057   -0.3872    2.5326 H   0  0  0  0  0  0  0  0  0  0  0  0
    2.1840    1.2650    3.0221 H   0  0  0  0  0  0  0  0  0  0  0  0
    3.3405    0.9985    1.7033 H   0  0  0  0  0  0  0  0  0  0  0  0
   -2.4486    0.1683   -2.6872 H   0  0  0  0  0  0  0  0  0  0  0  0
  1  2  2  0  0  0  0
  1  3  1  0  0  0  0
  2  7  1  0  0  0  0
  3  8  1  0  0  0  0
  4  5  1  0  0  0  0
  4  6  1  0  0  0  0
  5  7  1  0  0  0  0
  6  8  1  0  0  0  0
  7 10  1  0  0  0  0
  8  9  1  0  0  0  0
  1 11  1  0  0  0  0
  2 12  1  0  0  0  0
  3 13  1  0  0  0  0
  3 14  1  0  0  0  0
  4 15  1  0  0  0  0
  4 16  1  0  0  0  0
  5 17  1  0  0  0  0
  5 18  1  0  0  0  0
  6 19  1  0  0  0  0
  6 20  1  0  0  0  0
  7 21  1  6  0  0  0
  8 22  1  1  0  0  0
  9 23  1  0  0  0  0
  9 24  1  0  0  0  0
  9 25  1  0  0  0  0
 10 26  1  0  0  0  0
M  END
$$$$
*****
  -OEChem-06272317433D

 26 26  0     1  0  0  0  0  0999 V2000
    0.7812   -1.6901   -0.1976 C   0  0  0  0  0  0  0  0  0  0  0  0
   -0.5514   -1.8426   -0.2271 C   0  0  0  0  0  0  0  0  0  0  0  0
    1.6728   -0.4791   -0.2404 C   0  0  0  0  0  0  0  0  0  0  0  0
   -0.5743    0.5030    1.6748 C   0  0  0  0  0  0  0  0  0  0  0  0
   -1.8206    0.1201    0.8748 C   0  0  0  0  0  0  0  0  0  0  0  0
    0.4175    1.4296    0.9783 C   0  0  0  0  0  0  0  0  0  0  0  0
   -1.6477   -0.8239   -0.3223 C   0  0  1  0  0  0  0  0  0  0  0  0
    1.0859    0.9402   -0.3170 C   0  0  2  0  0  0  0  0  0  0  0  0
    2.2062    1.9292   -0.6858 C   0  0  0  0  0  0  0  0  0  0  0  0
   -1.5696   -0.0865   -1.5378 O   0  0  0  0  0  0  0  0  0  0  0  0
    1.3599   -2.6715   -0.1343 H   0  0  0  0  0  0  0  0  0  0  0  0
   -0.9044   -2.9210   -0.2278 H   0  0  0  0  0  0  0  0  0  0  0  0
    2.4171   -0.5312    0.6073 H   0  0  0  0  0  0  0  0  0  0  0  0
    2.3495   -0.6368   -1.1280 H   0  0  0  0  0  0  0  0  0  0  0  0
   -0.8621    0.9094    2.6589 H   0  0  0  0  0  0  0  0  0  0  0  0
   -0.0521   -0.4409    1.9093 H   0  0  0  0  0  0  0  0  0  0  0  0
   -2.5626   -0.3346    1.5611 H   0  0  0  0  0  0  0  0  0  0  0  0
   -2.3196    1.0504    0.5356 H   0  0  0  0  0  0  0  0  0  0  0  0
   -0.1492    2.3538    0.7264 H   0  0  0  0  0  0  0  0  0  0  0  0
    1.1894    1.7854    1.6983 H   0  0  0  0  0  0  0  0  0  0  0  0
   -2.6516   -1.3912   -0.4420 H   0  0  0  0  0  0  0  0  0  0  0  0
    0.3448    0.9795   -1.1329 H   0  0  0  0  0  0  0  0  0  0  0  0
    2.9620    1.9237    0.0935 H   0  0  0  0  0  0  0  0  0  0  0  0
    1.7885    2.9268   -0.7805 H   0  0  0  0  0  0  0  0  0  0  0  0
    2.6536    1.6308   -1.6289 H   0  0  0  0  0  0  0  0  0  0  0  0
   -2.3049    0.5445   -1.5228 H   0  0  0  0  0  0  0  0  0  0  0  0
  1  2  2  0  0  0  0
  1  3  1  0  0  0  0
  2  7  1  0  0  0  0
  3  8  1  0  0  0  0
  4  5  1  0  0  0  0
  4  6  1  0  0  0  0
  5  7  1  0  0  0  0
  6  8  1  0  0  0  0
  7 10  1  0  0  0  0
  8  9  1  0  0  0  0
  1 11  1  0  0  0  0
  2 12  1  0  0  0  0
  3 13  1  0  0  0  0
  3 14  1  0  0  0  0
  4 15  1  0  0  0  0
  4 16  1  0  0  0  0
  5 17  1  0  0  0  0
  5 18  1  0  0  0  0
  6 19  1  0  0  0  0
  6 20  1  0  0  0  0
  7 21  1  6  0  0  0
  8 22  1  1  0  0  0
  9 23  1  0  0  0  0
  9 24  1  0  0  0  0
  9 25  1  0  0  0  0
 10 26  1  0  0  0  0
M  END
$$$$
*****
  -OEChem-06272317433D

 26 26  0     1  0  0  0  0  0999 V2000
    0.8246   -1.3081    1.1574 C   0  0  0  0  0  0  0  0  0  0  0  0
   -0.5083   -1.4174    1.2354 C   0  0  0  0  0  0  0  0  0  0  0  0
    1.7355   -0.5786    0.2156 C   0  0  0  0  0  0  0  0  0  0  0  0
   -1.0879    1.5934   -0.2712 C   0  0  0  0  0  0  0  0  0  0  0  0
   -1.9073    0.5977    0.5515 C   0  0  0  0  0  0  0  0  0  0  0  0
    0.4153    1.6099    0.0075 C   0  0  0  0  0  0  0  0  0  0  0  0
   -1.6061   -0.8904    0.3590 C   0  0  1  0  0  0  0  0  0  0  0  0
    1.1851    0.4985   -0.7328 C   0  0  2  0  0  0  0  0  0  0  0  0
    2.3607    1.1099   -1.5127 C   0  0  0  0  0  0  0  0  0  0  0  0
   -1.4116   -1.2150   -1.0095 O   0  0  0  0  0  0  0  0  0  0  0  0
    1.3854   -1.8914    1.9640 H   0  0  0  0  0  0  0  0  0  0  0  0
   -0.8731   -2.0694    2.1009 H   0  0  0  0  0  0  0  0  0  0  0  0
    2.6137   -0.1613    0.7862 H   0  0  0  0  0  0  0  0  0  0  0  0
    2.2361   -1.3770   -0.3997 H   0  0  0  0  0  0  0  0  0  0  0  0
   -1.2826    1.4554   -1.3452 H   0  0  0  0  0  0  0  0  0  0  0  0
   -1.4872    2.5938   -0.0401 H   0  0  0  0  0  0  0  0  0  0  0  0
   -1.7879    0.8346    1.6248 H   0  0  0  0  0  0  0  0  0  0  0  0
   -2.9806    0.7823    0.3584 H   0  0  0  0  0  0  0  0  0  0  0  0
    0.7880    2.5685   -0.3588 H   0  0  0  0  0  0  0  0  0  0  0  0
    0.6203    1.5817    1.0756 H   0  0  0  0  0  0  0  0  0  0  0  0
   -2.5756   -1.4594    0.6271 H   0  0  0  0  0  0  0  0  0  0  0  0
    0.5157    0.0242   -1.4598 H   0  0  0  0  0  0  0  0  0  0  0  0
    3.0435    1.5887   -0.8176 H   0  0  0  0  0  0  0  0  0  0  0  0
    1.9823    1.8454   -2.2159 H   0  0  0  0  0  0  0  0  0  0  0  0
    2.8817    0.3248   -2.0522 H   0  0  0  0  0  0  0  0  0  0  0  0
   -1.3910   -2.1824   -1.0610 H   0  0  0  0  0  0  0  0  0  0  0  0
  1  2  2  0  0  0  0
  1  3  1  0  0  0  0
  2  7  1  0  0  0  0
  3  8  1  0  0  0  0
  4  5  1  0  0  0  0
  4  6  1  0  0  0  0
  5  7  1  0  0  0  0
  6  8  1  0  0  0  0
  7 10  1  0  0  0  0
  8  9  1  0  0  0  0
  1 11  1  0  0  0  0
  2 12  1  0  0  0  0
  3 13  1  0  0  0  0
  3 14  1  0  0  0  0
  4 15  1  0  0  0  0
  4 16  1  0  0  0  0
  5 17  1  0  0  0  0
  5 18  1  0  0  0  0
  6 19  1  0  0  0  0
  6 20  1  0  0  0  0
  7 21  1  6  0  0  0
  8 22  1  1  0  0  0
  9 23  1  0  0  0  0
  9 24  1  0  0  0  0
  9 25  1  0  0  0  0
 10 26  1  0  0  0  0
M  END
$$$$
*****
  -OEChem-06272317433D

 26 26  0     1  0  0  0  0  0999 V2000
    0.9941   -1.1538   -1.0190 C   0  0  0  0  0  0  0  0  0  0  0  0
   -0.3082   -1.4183   -1.1952 C   0  0  0  0  0  0  0  0  0  0  0  0
    1.8063   -0.1988   -0.1927 C   0  0  0  0  0  0  0  0  0  0  0  0
   -0.6980   -0.1062    1.6462 C   0  0  0  0  0  0  0  0  0  0  0  0
   -1.6567    0.1280    0.4870 C   0  0  0  0  0  0  0  0  0  0  0  0
    0.4379    0.9105    1.6660 C   0  0  0  0  0  0  0  0  0  0  0  0
   -1.6029   -0.9388   -0.6031 C   0  0  1  0  0  0  0  0  0  0  0  0
    1.1828    1.0996    0.3336 C   0  0  2  0  0  0  0  0  0  0  0  0
    2.2840    2.1510    0.5479 C   0  0  0  0  0  0  0  0  0  0  0  0
   -2.4392   -0.4732   -1.6707 O   0  0  0  0  0  0  0  0  0  0  0  0
    1.6738   -1.8351   -1.6814 H   0  0  0  0  0  0  0  0  0  0  0  0
   -0.4800   -2.1928   -2.0654 H   0  0  0  0  0  0  0  0  0  0  0  0
    2.2919   -0.7553    0.6577 H   0  0  0  0  0  0  0  0  0  0  0  0
    2.7004    0.0598   -0.8241 H   0  0  0  0  0  0  0  0  0  0  0  0
   -1.2264   -0.1237    2.5920 H   0  0  0  0  0  0  0  0  0  0  0  0
   -0.2677   -1.0952    1.5064 H   0  0  0  0  0  0  0  0  0  0  0  0
   -2.6808    0.1812    0.8670 H   0  0  0  0  0  0  0  0  0  0  0  0
   -1.4561    1.1111    0.0519 H   0  0  0  0  0  0  0  0  0  0  0  0
   -0.0169    1.8787    1.9291 H   0  0  0  0  0  0  0  0  0  0  0  0
    1.1465    0.6940    2.4792 H   0  0  0  0  0  0  0  0  0  0  0  0
   -2.2033   -1.8471   -0.2305 H   0  0  0  0  0  0  0  0  0  0  0  0
    0.4846    1.4979   -0.4078 H   0  0  0  0  0  0  0  0  0  0  0  0
    2.9949    1.7832    1.2814 H   0  0  0  0  0  0  0  0  0  0  0  0
    1.8363    3.0731    0.9057 H   0  0  0  0  0  0  0  0  0  0  0  0
    2.7939    2.3349   -0.3928 H   0  0  0  0  0  0  0  0  0  0  0  0
   -3.2637   -0.1714   -1.2607 H   0  0  0  0  0  0  0  0  0  0  0  0
  1  2  2  0  0  0  0
  1  3  1  0  0  0  0
  2  7  1  0  0  0  0
  3  8  1  0  0  0  0
  4  5  1  0  0  0  0
  4  6  1  0  0  0  0
  5  7  1  0  0  0  0
  6  8  1  0  0  0  0
  7 10  1  0  0  0  0
  8  9  1  0  0  0  0
  1 11  1  0  0  0  0
  2 12  1  0  0  0  0
  3 13  1  0  0  0  0
  3 14  1  0  0  0  0
  4 15  1  0  0  0  0
  4 16  1  0  0  0  0
  5 17  1  0  0  0  0
  5 18  1  0  0  0  0
  6 19  1  0  0  0  0
  6 20  1  0  0  0  0
  7 21  1  6  0  0  0
  8 22  1  1  0  0  0
  9 23  1  0  0  0  0
  9 24  1  0  0  0  0
  9 25  1  0  0  0  0
 10 26  1  0  0  0  0
M  END
$$$$
*****
  -OEChem-06272317433D

 26 26  0     1  0  0  0  0  0999 V2000
    1.0653   -0.2834   -1.4185 C   0  0  0  0  0  0  0  0  0  0  0  0
   -0.2000   -0.5490   -1.7725 C   0  0  0  0  0  0  0  0  0  0  0  0
    1.6735   -0.2792   -0.0489 C   0  0  0  0  0  0  0  0  0  0  0  0
   -0.8785   -0.3788    1.5489 C   0  0  0  0  0  0  0  0  0  0  0  0
   -1.6725   -0.0016    0.2993 C   0  0  0  0  0  0  0  0  0  0  0  0
    0.2635    0.5715    1.9105 C   0  0  0  0  0  0  0  0  0  0  0  0
   -1.3918   -0.8919   -0.9212 C   0  0  1  0  0  0  0  0  0  0  0  0
    1.2384    0.9400    0.7800 C   0  0  2  0  0  0  0  0  0  0  0  0
    2.4588    1.6493    1.3798 C   0  0  0  0  0  0  0  0  0  0  0  0
   -2.5567   -0.7769   -1.7574 O   0  0  0  0  0  0  0  0  0  0  0  0
    1.7614   -0.0232   -2.2445 H   0  0  0  0  0  0  0  0  0  0  0  0
   -0.4179   -0.4543   -2.8777 H   0  0  0  0  0  0  0  0  0  0  0  0
    1.4547   -1.2022    0.4799 H   0  0  0  0  0  0  0  0  0  0  0  0
    2.7537   -0.2570   -0.1878 H   0  0  0  0  0  0  0  0  0  0  0  0
   -1.5517   -0.5208    2.4046 H   0  0  0  0  0  0  0  0  0  0  0  0
   -0.4461   -1.3719    1.3585 H   0  0  0  0  0  0  0  0  0  0  0  0
   -2.7404   -0.0492    0.5183 H   0  0  0  0  0  0  0  0  0  0  0  0
   -1.4674    1.0402    0.0475 H   0  0  0  0  0  0  0  0  0  0  0  0
   -0.2131    1.5084    2.2539 H   0  0  0  0  0  0  0  0  0  0  0  0
    0.8155    0.2003    2.7930 H   0  0  0  0  0  0  0  0  0  0  0  0
   -1.3816   -1.9502   -0.6170 H   0  0  0  0  0  0  0  0  0  0  0  0
    0.7331    1.6611    0.1117 H   0  0  0  0  0  0  0  0  0  0  0  0
    2.9808    0.9674    2.0441 H   0  0  0  0  0  0  0  0  0  0  0  0
    2.1303    2.5207    1.9378 H   0  0  0  0  0  0  0  0  0  0  0  0
    3.1243    1.9588    0.5798 H   0  0  0  0  0  0  0  0  0  0  0  0
   -2.4354   -1.4067   -2.4838 H   0  0  0  0  0  0  0  0  0  0  0  0
  1  2  2  0  0  0  0
  1  3  1  0  0  0  0
  2  7  1  0  0  0  0
  3  8  1  0  0  0  0
  4  5  1  0  0  0  0
  4  6  1  0  0  0  0
  5  7  1  0  0  0  0
  6  8  1  0  0  0  0
  7 10  1  0  0  0  0
  8  9  1  0  0  0  0
  1 11  1  0  0  0  0
  2 12  1  0  0  0  0
  3 13  1  0  0  0  0
  3 14  1  0  0  0  0
  4 15  1  0  0  0  0
  4 16  1  0  0  0  0
  5 17  1  0  0  0  0
  5 18  1  0  0  0  0
  6 19  1  0  0  0  0
  6 20  1  0  0  0  0
  7 21  1  6  0  0  0
  8 22  1  1  0  0  0
  9 23  1  0  0  0  0
  9 24  1  0  0  0  0
  9 25  1  0  0  0  0
 10 26  1  0  0  0  0
M  END
$$$$
*****
  -OEChem-06272317433D

 26 26  0     1  0  0  0  0  0999 V2000
    1.1023   -1.0337   -1.0775 C   0  0  0  0  0  0  0  0  0  0  0  0
   -0.1961   -1.2993   -1.2805 C   0  0  0  0  0  0  0  0  0  0  0  0
    1.9111   -0.1170   -0.2063 C   0  0  0  0  0  0  0  0  0  0  0  0
   -1.1978    0.6981    1.3202 C   0  0  0  0  0  0  0  0  0  0  0  0
   -1.5789    0.6272   -0.1559 C   0  0  0  0  0  0  0  0  0  0  0  0
    0.2106    0.2282    1.6665 C   0  0  0  0  0  0  0  0  0  0  0  0
   -1.5067   -0.7657   -0.7728 C   0  0  1  0  0  0  0  0  0  0  0  0
    1.2742    0.8790    0.7719 C   0  0  2  0  0  0  0  0  0  0  0  0
    2.3783    1.5044    1.6383 C   0  0  0  0  0  0  0  0  0  0  0  0
   -2.3970   -0.7213   -1.9039 O   0  0  0  0  0  0  0  0  0  0  0  0
    1.7916   -1.6852   -1.7675 H   0  0  0  0  0  0  0  0  0  0  0  0
   -0.3458   -2.1352   -2.0962 H   0  0  0  0  0  0  0  0  0  0  0  0
    2.6988   -0.7271    0.3450 H   0  0  0  0  0  0  0  0  0  0  0  0
    2.5785    0.4601   -0.9211 H   0  0  0  0  0  0  0  0  0  0  0  0
   -1.3792    1.7099    1.7153 H   0  0  0  0  0  0  0  0  0  0  0  0
   -1.9135    0.0561    1.8599 H   0  0  0  0  0  0  0  0  0  0  0  0
   -2.5971    1.0102   -0.2851 H   0  0  0  0  0  0  0  0  0  0  0  0
   -0.9397    1.3157   -0.7197 H   0  0  0  0  0  0  0  0  0  0  0  0
    0.4005    0.5445    2.6904 H   0  0  0  0  0  0  0  0  0  0  0  0
    0.2856   -0.8527    1.6444 H   0  0  0  0  0  0  0  0  0  0  0  0
   -2.0005   -1.5002   -0.0956 H   0  0  0  0  0  0  0  0  0  0  0  0
    0.8062    1.6904    0.1958 H   0  0  0  0  0  0  0  0  0  0  0  0
    2.8617    0.7269    2.2217 H   0  0  0  0  0  0  0  0  0  0  0  0
    1.9390    2.2398    2.3053 H   0  0  0  0  0  0  0  0  0  0  0  0
    3.1098    1.9860    0.9966 H   0  0  0  0  0  0  0  0  0  0  0  0
   -2.4717   -1.6311   -2.2292 H   0  0  0  0  0  0  0  0  0  0  0  0
  1  2  2  0  0  0  0
  1  3  1  0  0  0  0
  2  7  1  0  0  0  0
  3  8  1  0  0  0  0
  4  5  1  0  0  0  0
  4  6  1  0  0  0  0
  5  7  1  0  0  0  0
  6  8  1  0  0  0  0
  7 10  1  0  0  0  0
  8  9  1  0  0  0  0
  1 11  1  0  0  0  0
  2 12  1  0  0  0  0
  3 13  1  0  0  0  0
  3 14  1  0  0  0  0
  4 15  1  0  0  0  0
  4 16  1  0  0  0  0
  5 17  1  0  0  0  0
  5 18  1  0  0  0  0
  6 19  1  0  0  0  0
  6 20  1  0  0  0  0
  7 21  1  6  0  0  0
  8 22  1  1  0  0  0
  9 23  1  0  0  0  0
  9 24  1  0  0  0  0
  9 25  1  0  0  0  0
 10 26  1  0  0  0  0
M  END
$$$$
*****
  -OEChem-06272317433D

 26 26  0     1  0  0  0  0  0999 V2000
    1.5269    0.1446   -1.0031 C   0  0  0  0  0  0  0  0  0  0  0  0
    0.4188   -0.3168   -1.5998 C   0  0  0  0  0  0  0  0  0  0  0  0
    1.8309    0.5487    0.4112 C   0  0  0  0  0  0  0  0  0  0  0  0
   -1.0203    1.4614    0.5761 C   0  0  0  0  0  0  0  0  0  0  0  0
   -1.6793    0.6583   -0.5440 C   0  0  0  0  0  0  0  0  0  0  0  0
   -0.4733    0.6061    1.7190 C   0  0  0  0  0  0  0  0  0  0  0  0
   -0.9320   -0.5876   -1.0133 C   0  0  1  0  0  0  0  0  0  0  0  0
    0.9837    0.0974    1.6146 C   0  0  2  0  0  0  0  0  0  0  0  0
    1.0946   -1.4126    1.8608 C   0  0  0  0  0  0  0  0  0  0  0  0
   -1.7499   -1.1995   -2.0215 O   0  0  0  0  0  0  0  0  0  0  0  0
    2.4183    0.2624   -1.7059 H   0  0  0  0  0  0  0  0  0  0  0  0
    0.5021   -0.4778   -2.7110 H   0  0  0  0  0  0  0  0  0  0  0  0
    2.9281    0.3358    0.6316 H   0  0  0  0  0  0  0  0  0  0  0  0
    1.8540    1.6843    0.3980 H   0  0  0  0  0  0  0  0  0  0  0  0
   -0.2463    2.1196    0.1761 H   0  0  0  0  0  0  0  0  0  0  0  0
   -1.7913    2.1223    0.9851 H   0  0  0  0  0  0  0  0  0  0  0  0
   -2.6880    0.3543   -0.2235 H   0  0  0  0  0  0  0  0  0  0  0  0
   -1.8547    1.3279   -1.4010 H   0  0  0  0  0  0  0  0  0  0  0  0
   -0.5334    1.2356    2.6323 H   0  0  0  0  0  0  0  0  0  0  0  0
   -1.1586   -0.2417    1.9351 H   0  0  0  0  0  0  0  0  0  0  0  0
   -0.8819   -1.3222   -0.2011 H   0  0  0  0  0  0  0  0  0  0  0  0
    1.5269    0.5619    2.5552 H   0  0  0  0  0  0  0  0  0  0  0  0
    0.6199   -1.9463    1.0431 H   0  0  0  0  0  0  0  0  0  0  0  0
    0.5997   -1.6622    2.7942 H   0  0  0  0  0  0  0  0  0  0  0  0
    2.1422   -1.6917    1.9181 H   0  0  0  0  0  0  0  0  0  0  0  0
   -2.6133   -1.3613   -1.6124 H   0  0  0  0  0  0  0  0  0  0  0  0
  1  2  2  0  0  0  0
  1  3  1  0  0  0  0
  2  7  1  0  0  0  0
  3  8  1  0  0  0  0
  4  5  1  0  0  0  0
  4  6  1  0  0  0  0
  5  7  1  0  0  0  0
  6  8  1  0  0  0  0
  7 10  1  0  0  0  0
  8  9  1  0  0  0  0
  1 11  1  0  0  0  0
  2 12  1  0  0  0  0
  3 13  1  0  0  0  0
  3 14  1  0  0  0  0
  4 15  1  0  0  0  0
  4 16  1  0  0  0  0
  5 17  1  0  0  0  0
  5 18  1  0  0  0  0
  6 19  1  0  0  0  0
  6 20  1  0  0  0  0
  7 21  1  6  0  0  0
  8 22  1  1  0  0  0
  9 23  1  0  0  0  0
  9 24  1  0  0  0  0
  9 25  1  0  0  0  0
 10 26  1  0  0  0  0
M  END
$$$$
